LTspice 24.1.0 for Windows
Circuit: C:\Users\gauth\Documents\LTspice\AC_micro.net
Start Time: Wed Mar 12 16:06:49 2025
solver = Normal
Maximum thread count: 12
tnom = 27
temp = 27
method = trap
Direct Newton iteration for .op point succeeded.
Total elapsed time: 0.279 seconds.

Files loaded:
C:\Users\gauth\Documents\LTspice\AC_micro.net
C:\Users\gauth\AppData\Local\LTspice\lib\cmp\standard.dio
C:\Users\gauth\AppData\Local\LTspice\lib\cmp\standard.bjt

